Campus data/MyCampus/Newcampus.csv
Bus ID, Position, Size, Type, District, Voltage, Active Power, Reactive Power
0, (30;60), , HV_sub, , 70000, , 
2, (20;60), , MV_sub, A, 15000, , 
3, (40;60), , MV_sub, A, 15000, , 
8, (11;48), , LV_load, A, 400, 1.0, 0.2
9, (25;38), , LV_load, A, 400, 1.5, 0.38
10, (51;42), , LV_load, A, 400, 2.0, 0.57
11, (0;64), , LV_load, A, 400, 2.5, 0.82
21, (10;70), , MV_load, A, 15000, 10, 4.84
22, (20;80), , MV_load, A, 15000, 11, 5.83
23, (40;80), , MV_load, A, 15000, 12, 6.54

